  0
SECTION
  2
ENTITIES
999
DXF created from EnergyPlus
999
Program Version,EnergyPlus, Version 8.8.0-7c3bbe4830, YMD=2018.01.12 19:28
999
Polygon Action,TRIANGULATE3DFACE
999
Color Scheme,Default
999
Text - True North
  0
TEXT
  8
1
  6
Continuous
 62
  3
 10
      -11.00219
 20
       -4.07326
 30
        0.10000
 40
 .25
  1
True North
 41
 0.0
  7
MONOTXT
210
0.0
220
0.0
230
1.0
999
Text - Building Title
  0
TEXT
  8
1
  6
Continuous
 62
  3
 10
      -14.00219
 20
       -8.07326
 30
        0.10000
 40
 .4
  1
Building - Building
 41
 0.0
  7
MONOTXT
210
0.0
220
0.0
230
1.0
999
North Arrow Stem
  0
3DFACE
  8
1
 62
  3
 10
      -10.00219
 20
       -4.07326
 30
        0.10000
 11
      -10.00219
 21
       -4.07326
 31
        0.00000
 12
      -10.00219
 22
       -7.07326
 32
        0.00000
 13
      -10.00219
 23
       -7.07326
 33
        0.10000
999
North Arrow Head 1
  0
3DFACE
  8
1
 62
  3
 10
      -10.00219
 20
       -4.07326
 30
        0.10000
 11
      -10.00219
 21
       -4.07326
 31
        0.00000
 12
      -10.50219
 22
       -4.93928
 32
        0.00000
 13
      -10.50219
 23
       -4.93928
 33
        0.10000
999
North Arrow Head 2
  0
3DFACE
  8
1
 62
  3
 10
      -10.00219
 20
       -4.07326
 30
        0.10000
 11
      -10.00219
 21
       -4.07326
 31
        0.00000
 12
       -9.50219
 22
       -4.93928
 32
        0.00000
 13
       -9.50219
 23
       -4.93928
 33
        0.10000
999
North Arrow Side 1
  0
3DFACE
  8
1
 62
  3
 10
      -10.50219
 20
       -2.57326
 30
        0.10000
 11
      -10.50219
 21
       -2.57326
 31
        0.00000
 12
      -10.50219
 22
       -3.57326
 32
        0.00000
 13
      -10.50219
 23
       -3.57326
 33
        0.10000
999
North Arrow Side 2
  0
3DFACE
  8
1
 62
  3
 10
      -10.50219
 20
       -2.57326
 30
        0.10000
 11
      -10.50219
 21
       -2.57326
 31
        0.00000
 12
       -9.50219
 22
       -3.57326
 32
        0.00000
 13
       -9.50219
 23
       -3.57326
 33
        0.10000
999
North Arrow Side 3
  0
3DFACE
  8
1
 62
  3
 10
       -9.50219
 20
       -2.57326
 30
        0.10000
 11
       -9.50219
 21
       -2.57326
 31
        0.00000
 12
       -9.50219
 22
       -3.57326
 32
        0.00000
 13
       -9.50219
 23
       -3.57326
 33
        0.10000
999
Zone Names
999
Zone=1:ZONE_1
999
Zone=2:ZONE_2
999
Zone=3:ZONE_3
999
Zone=4:ZONE_4
999
Zone=5:ZONE_CORE
999
ZONE_1:S_WALL
  0
3DFACE
  8
ZONE_1
 62
 43
 10
        0.00000
 20
        0.00000
 30
        3.00000
 11
        0.00000
 21
        0.00000
 31
        0.00000
 12
        0.00000
 22
       -7.07107
 32
        0.00000
 13
        0.00000
 23
       -7.07107
 33
        3.00000
999
ZONE_1:SOUTH_WINDOW
  0
3DFACE
  8
ZONE_1
 62
143
 10
        0.00000
 20
       -1.00000
 30
        2.12748
 11
        0.00000
 21
       -1.00000
 31
        0.87252
 12
        0.00000
 22
       -6.07107
 32
        0.87252
 13
        0.00000
 23
       -6.07107
 33
        2.12748
999
ZONE_1:ZONE_1_N
  0
3DFACE
  8
ZONE_1
 62
 43
 10
        3.00000
 20
       -3.00000
 30
        3.00000
 11
        3.00000
 21
       -3.00000
 31
        0.00000
 12
        3.00000
 22
       -4.07107
 32
        0.00000
 13
        3.00000
 23
       -4.07107
 33
        3.00000
999
ZONE_1:ZONE_1_W
  0
3DFACE
  8
ZONE_1
 62
 43
 10
        0.00000
 20
        0.00000
 30
        3.00000
 11
        0.00000
 21
        0.00000
 31
        0.00000
 12
        2.99955
 22
       -2.99955
 32
        0.00000
 13
        2.99955
 23
       -2.99955
 33
        3.00000
999
ZONE_1:ZONE_1_E
  0
3DFACE
  8
ZONE_1
 62
 43
 10
        0.00000
 20
       -7.07107
 30
        3.00000
 11
        0.00000
 21
       -7.07107
 31
        0.00000
 12
        2.99955
 22
       -4.07152
 32
        0.00000
 13
        2.99955
 23
       -4.07152
 33
        3.00000
999
ZONE_1:iz-ZONE_2_S
  0
3DFACE
  8
ZONE_1
 62
 43
 10
        0.00045
 20
       -7.07061
 30
        3.00000
 11
        0.00045
 21
       -7.07061
 31
        0.00000
 12
        3.00000
 22
       -4.07107
 32
        0.00000
 13
        3.00000
 23
       -4.07107
 33
        3.00000
999
ZONE_1:iz-ZONE_4_S
  0
3DFACE
  8
ZONE_1
 62
 43
 10
        2.99955
 20
       -2.99955
 30
        3.00000
 11
        2.99955
 21
       -2.99955
 31
        0.00000
 12
        0.00000
 22
        0.00000
 32
        0.00000
 13
        0.00000
 23
        0.00000
 33
        3.00000
999
ZONE_1:ZONE_1_FLOOR
  0
3DFACE
  8
ZONE_1
 62
  8
 10
        0.00000
 20
       -7.07107
 30
        0.00000
 11
        0.00000
 21
        0.00000
 31
        0.00000
 12
        3.00000
 22
       -3.00000
 32
        0.00000
 13
        3.00000
 23
       -4.07107
 33
        0.00000
999
ZONE_1:ZONE_1_ROOF
  0
3DFACE
  8
ZONE_1
 62
 15
 10
        3.00000
 20
       -3.00000
 30
        3.00000
 11
        0.00000
 21
        0.00000
 31
        3.00000
 12
        0.00000
 22
       -7.07107
 32
        3.00000
 13
        3.00000
 23
       -4.07107
 33
        3.00000
999
ZONE_1:TEST_OVERHANG_S
  0
3DFACE
  8
ZONE_1
 62
 13
 10
       -0.00219
 20
       -1.00000
 30
        2.12748
 11
        0.00000
 21
       -1.00000
 31
        2.12748
 12
        0.00000
 22
       -6.07107
 32
        2.12748
 13
       -0.00219
 23
       -6.07107
 33
        2.12748
999
ZONE_1:Mir-TEST_OVERHANG_S
  0
3DFACE
  8
ZONE_1
 62
 13
 10
       -0.00219
 20
       -6.07107
 30
        2.12748
 11
        0.00000
 21
       -6.07107
 31
        2.12748
 12
        0.00000
 22
       -1.00000
 32
        2.12748
 13
       -0.00219
 23
       -1.00000
 33
        2.12748
999
ZONE_2:E_WALL
  0
3DFACE
  8
ZONE_2
 62
 43
 10
        0.00000
 20
       -7.07107
 30
        3.00000
 11
        0.00000
 21
       -7.07107
 31
        0.00000
 12
        7.07107
 22
       -7.07107
 32
        0.00000
 13
        7.07107
 23
       -7.07107
 33
        3.00000
999
ZONE_2:EAST_WINDOW
  0
3DFACE
  8
ZONE_2
 62
143
 10
        1.00000
 20
       -7.07107
 30
        2.12748
 11
        1.00000
 21
       -7.07107
 31
        0.87252
 12
        6.07107
 22
       -7.07107
 32
        0.87252
 13
        6.07107
 23
       -7.07107
 33
        2.12748
999
ZONE_2:ZONE_2_S
  0
3DFACE
  8
ZONE_2
 62
 43
 10
        3.00000
 20
       -4.07107
 30
        3.00000
 11
        3.00000
 21
       -4.07107
 31
        0.00000
 12
        0.00045
 22
       -7.07061
 32
        0.00000
 13
        0.00045
 23
       -7.07061
 33
        3.00000
999
ZONE_2:ZONE_2_W
  0
3DFACE
  8
ZONE_2
 62
 43
 10
        3.00000
 20
       -4.07107
 30
        3.00000
 11
        3.00000
 21
       -4.07107
 31
        0.00000
 12
        4.07107
 22
       -4.07107
 32
        0.00000
 13
        4.07107
 23
       -4.07107
 33
        3.00000
999
ZONE_2:ZONE_2_N
  0
3DFACE
  8
ZONE_2
 62
 43
 10
        4.07107
 20
       -4.07107
 30
        3.00000
 11
        4.07107
 21
       -4.07107
 31
        0.00000
 12
        7.07061
 22
       -7.07061
 32
        0.00000
 13
        7.07061
 23
       -7.07061
 33
        3.00000
999
ZONE_2:iz-ZONE_3_E
  0
3DFACE
  8
ZONE_2
 62
 43
 10
        7.07061
 20
       -7.07061
 30
        3.00000
 11
        7.07061
 21
       -7.07061
 31
        0.00000
 12
        4.07107
 22
       -4.07107
 32
        0.00000
 13
        4.07107
 23
       -4.07107
 33
        3.00000
999
ZONE_2:iz-ZONE_1_E
  0
3DFACE
  8
ZONE_2
 62
 43
 10
        2.99955
 20
       -4.07152
 30
        3.00000
 11
        2.99955
 21
       -4.07152
 31
        0.00000
 12
        0.00000
 22
       -7.07107
 32
        0.00000
 13
        0.00000
 23
       -7.07107
 33
        3.00000
999
ZONE_2:ZONE_2_FLOOR
  0
3DFACE
  8
ZONE_2
 62
  8
 10
        0.00000
 20
       -7.07107
 30
        0.00000
 11
        3.00000
 21
       -4.07107
 31
        0.00000
 12
        4.07107
 22
       -4.07107
 32
        0.00000
 13
        7.07107
 23
       -7.07107
 33
        0.00000
999
ZONE_2:ZONE_2_ROOF
  0
3DFACE
  8
ZONE_2
 62
 15
 10
        4.07107
 20
       -4.07107
 30
        3.00000
 11
        3.00000
 21
       -4.07107
 31
        3.00000
 12
        0.00000
 22
       -7.07107
 32
        3.00000
 13
        7.07107
 23
       -7.07107
 33
        3.00000
999
ZONE_2:TEST_OVERHANG_E
  0
3DFACE
  8
ZONE_2
 62
 13
 10
        1.00000
 20
       -7.07326
 30
        2.12748
 11
        1.00000
 21
       -7.07107
 31
        2.12748
 12
        6.07107
 22
       -7.07107
 32
        2.12748
 13
        6.07107
 23
       -7.07326
 33
        2.12748
999
ZONE_2:Mir-TEST_OVERHANG_E
  0
3DFACE
  8
ZONE_2
 62
 13
 10
        6.07107
 20
       -7.07326
 30
        2.12748
 11
        6.07107
 21
       -7.07107
 31
        2.12748
 12
        1.00000
 22
       -7.07107
 32
        2.12748
 13
        1.00000
 23
       -7.07326
 33
        2.12748
999
ZONE_3:N_WALL
  0
3DFACE
  8
ZONE_3
 62
 43
 10
        7.07107
 20
       -7.07107
 30
        3.00000
 11
        7.07107
 21
       -7.07107
 31
        0.00000
 12
        7.07107
 22
        0.00000
 32
        0.00000
 13
        7.07107
 23
       -0.00000
 33
        3.00000
999
ZONE_3:NORTH_WINDOW
  0
3DFACE
  8
ZONE_3
 62
143
 10
        7.07107
 20
       -6.07107
 30
        2.12748
 11
        7.07107
 21
       -6.07107
 31
        0.87252
 12
        7.07107
 22
       -1.00000
 32
        0.87252
 13
        7.07107
 23
       -1.00000
 33
        2.12748
999
ZONE_3:ZONE_3_S
  0
3DFACE
  8
ZONE_3
 62
 43
 10
        4.07107
 20
       -3.00000
 30
        3.00000
 11
        4.07107
 21
       -3.00000
 31
        0.00000
 12
        4.07107
 22
       -4.07107
 32
        0.00000
 13
        4.07107
 23
       -4.07107
 33
        3.00000
999
ZONE_3:ZONE_3_E
  0
3DFACE
  8
ZONE_3
 62
 43
 10
        4.07107
 20
       -4.07107
 30
        3.00000
 11
        4.07107
 21
       -4.07107
 31
        0.00000
 12
        7.07061
 22
       -7.07061
 32
        0.00000
 13
        7.07061
 23
       -7.07061
 33
        3.00000
999
ZONE_3:ZONE_3_W
  0
3DFACE
  8
ZONE_3
 62
 43
 10
        4.07107
 20
       -3.00000
 30
        3.00000
 11
        4.07107
 21
       -3.00000
 31
        0.00000
 12
        7.07061
 22
       -0.00045
 32
        0.00000
 13
        7.07061
 23
       -0.00045
 33
        3.00000
999
ZONE_3:iz-ZONE_2_N
  0
3DFACE
  8
ZONE_3
 62
 43
 10
        7.07061
 20
       -7.07061
 30
        3.00000
 11
        7.07061
 21
       -7.07061
 31
        0.00000
 12
        4.07107
 22
       -4.07107
 32
        0.00000
 13
        4.07107
 23
       -4.07107
 33
        3.00000
999
ZONE_3:iz-ZONE_4_N
  0
3DFACE
  8
ZONE_3
 62
 43
 10
        7.07061
 20
       -0.00045
 30
        3.00000
 11
        7.07061
 21
       -0.00045
 31
        0.00000
 12
        4.07107
 22
       -3.00000
 32
        0.00000
 13
        4.07107
 23
       -3.00000
 33
        3.00000
999
ZONE_3:ZONE_3_FLOOR
  0
3DFACE
  8
ZONE_3
 62
  8
 10
        4.07107
 20
       -4.07107
 30
        0.00000
 11
        4.07107
 21
       -3.00000
 31
        0.00000
 12
        7.07107
 22
        0.00000
 32
        0.00000
 13
        7.07107
 23
       -7.07107
 33
        0.00000
999
ZONE_3:ZONE_3_ROOF
  0
3DFACE
  8
ZONE_3
 62
 15
 10
        7.07107
 20
        0.00000
 30
        3.00000
 11
        4.07107
 21
       -3.00000
 31
        3.00000
 12
        4.07107
 22
       -4.07107
 32
        3.00000
 13
        7.07107
 23
       -7.07107
 33
        3.00000
999
ZONE_3:TEST_OVERHANG_N
  0
3DFACE
  8
ZONE_3
 62
 13
 10
        7.07326
 20
       -6.07107
 30
        2.12748
 11
        7.07107
 21
       -6.07107
 31
        2.12748
 12
        7.07107
 22
       -1.00000
 32
        2.12748
 13
        7.07326
 23
       -1.00000
 33
        2.12748
999
ZONE_3:Mir-TEST_OVERHANG_N
  0
3DFACE
  8
ZONE_3
 62
 13
 10
        7.07326
 20
       -1.00000
 30
        2.12748
 11
        7.07107
 21
       -1.00000
 31
        2.12748
 12
        7.07107
 22
       -6.07107
 32
        2.12748
 13
        7.07326
 23
       -6.07107
 33
        2.12748
999
ZONE_4:W_WALL
  0
3DFACE
  8
ZONE_4
 62
 43
 10
        7.07107
 20
        0.00000
 30
        3.00000
 11
        7.07107
 21
        0.00000
 31
        0.00000
 12
        0.00000
 22
       -0.00000
 32
        0.00000
 13
        0.00000
 23
       -0.00000
 33
        3.00000
999
ZONE_4:WEST_WINDOW
  0
3DFACE
  8
ZONE_4
 62
143
 10
        6.07107
 20
        0.00000
 30
        2.12748
 11
        6.07107
 21
        0.00000
 31
        0.87252
 12
        1.00000
 22
        0.00000
 32
        0.87252
 13
        1.00000
 23
        0.00000
 33
        2.12748
999
ZONE_4:ZONE_4_S
  0
3DFACE
  8
ZONE_4
 62
 43
 10
        0.00000
 20
        0.00000
 30
        3.00000
 11
        0.00000
 21
        0.00000
 31
        0.00000
 12
        2.99955
 22
       -2.99955
 32
        0.00000
 13
        2.99955
 23
       -2.99955
 33
        3.00000
999
ZONE_4:ZONE_4_N
  0
3DFACE
  8
ZONE_4
 62
 43
 10
        4.07107
 20
       -3.00000
 30
        3.00000
 11
        4.07107
 21
       -3.00000
 31
        0.00000
 12
        7.07061
 22
       -0.00045
 32
        0.00000
 13
        7.07061
 23
       -0.00045
 33
        3.00000
999
ZONE_4:ZONE_4_E
  0
3DFACE
  8
ZONE_4
 62
 43
 10
        3.00000
 20
       -3.00000
 30
        3.00000
 11
        3.00000
 21
       -3.00000
 31
        0.00000
 12
        4.07107
 22
       -3.00000
 32
        0.00000
 13
        4.07107
 23
       -3.00000
 33
        3.00000
999
ZONE_4:iz-ZONE_3_W
  0
3DFACE
  8
ZONE_4
 62
 43
 10
        7.07061
 20
       -0.00045
 30
        3.00000
 11
        7.07061
 21
       -0.00045
 31
        0.00000
 12
        4.07107
 22
       -3.00000
 32
        0.00000
 13
        4.07107
 23
       -3.00000
 33
        3.00000
999
ZONE_4:iz-ZONE_1_W
  0
3DFACE
  8
ZONE_4
 62
 43
 10
        2.99955
 20
       -2.99955
 30
        3.00000
 11
        2.99955
 21
       -2.99955
 31
        0.00000
 12
        0.00000
 22
        0.00000
 32
        0.00000
 13
        0.00000
 23
        0.00000
 33
        3.00000
999
ZONE_4:ZONE_4_FLOOR
  0
3DFACE
  8
ZONE_4
 62
  8
 10
        3.00000
 20
       -3.00000
 30
        0.00000
 11
        0.00000
 21
        0.00000
 31
        0.00000
 12
        7.07107
 22
        0.00000
 32
        0.00000
 13
        4.07107
 23
       -3.00000
 33
        0.00000
999
ZONE_4:ZONE_4_ROOF
  0
3DFACE
  8
ZONE_4
 62
 15
 10
        7.07107
 20
        0.00000
 30
        3.00000
 11
        0.00000
 21
        0.00000
 31
        3.00000
 12
        3.00000
 22
       -3.00000
 32
        3.00000
 13
        4.07107
 23
       -3.00000
 33
        3.00000
999
ZONE_4:TEST_OVERHANG_W
  0
3DFACE
  8
ZONE_4
 62
 13
 10
        6.07107
 20
        0.00219
 30
        2.12748
 11
        6.07107
 21
        0.00000
 31
        2.12748
 12
        1.00000
 22
        0.00000
 32
        2.12748
 13
        1.00000
 23
        0.00219
 33
        2.12748
999
ZONE_4:Mir-TEST_OVERHANG_W
  0
3DFACE
  8
ZONE_4
 62
 13
 10
        1.00000
 20
        0.00219
 30
        2.12748
 11
        1.00000
 21
        0.00000
 31
        2.12748
 12
        6.07107
 22
        0.00000
 32
        2.12748
 13
        6.07107
 23
        0.00219
 33
        2.12748
999
ZONE_CORE:iz-ZONE_3_S
  0
3DFACE
  8
ZONE_CORE
 62
 43
 10
        4.07107
 20
       -4.07107
 30
        3.00000
 11
        4.07107
 21
       -4.07107
 31
        0.00000
 12
        4.07107
 22
       -3.00000
 32
        0.00000
 13
        4.07107
 23
       -3.00000
 33
        3.00000
999
ZONE_CORE:iz-ZONE_1_N
  0
3DFACE
  8
ZONE_CORE
 62
 43
 10
        3.00000
 20
       -4.07107
 30
        3.00000
 11
        3.00000
 21
       -4.07107
 31
        0.00000
 12
        3.00000
 22
       -3.00000
 32
        0.00000
 13
        3.00000
 23
       -3.00000
 33
        3.00000
999
ZONE_CORE:iz-ZONE_2_W
  0
3DFACE
  8
ZONE_CORE
 62
 43
 10
        4.07107
 20
       -4.07107
 30
        3.00000
 11
        4.07107
 21
       -4.07107
 31
        0.00000
 12
        3.00000
 22
       -4.07107
 32
        0.00000
 13
        3.00000
 23
       -4.07107
 33
        3.00000
999
ZONE_CORE:iz-ZONE_4_E
  0
3DFACE
  8
ZONE_CORE
 62
 43
 10
        4.07107
 20
       -3.00000
 30
        3.00000
 11
        4.07107
 21
       -3.00000
 31
        0.00000
 12
        3.00000
 22
       -3.00000
 32
        0.00000
 13
        3.00000
 23
       -3.00000
 33
        3.00000
999
ZONE_CORE:CORE_FLOOR
  0
3DFACE
  8
ZONE_CORE
 62
  8
 10
        4.07107
 20
       -4.07107
 30
        0.00000
 11
        3.00000
 21
       -4.07107
 31
        0.00000
 12
        3.00000
 22
       -3.00000
 32
        0.00000
 13
        4.07107
 23
       -3.00000
 33
        0.00000
999
ZONE_CORE:CORE_ROOF
  0
3DFACE
  8
ZONE_CORE
 62
 15
 10
        4.07107
 20
       -4.07107
 30
        3.00000
 11
        3.00000
 21
       -4.07107
 31
        3.00000
 12
        3.00000
 22
       -3.00000
 32
        3.00000
 13
        4.07107
 23
       -3.00000
 33
        3.00000
  0
ENDSEC
  0
EOF
