  0
SECTION
  2
ENTITIES
999
DXF created from EnergyPlus
999
Program Version,EnergyPlus, Version 8.9.0-40101eaafd, YMD=2025.09.10 10:39
999
Polygon Action,TRIANGULATE3DFACE
999
Color Scheme,Default
999
Text - True North
  0
TEXT
  8
1
  6
Continuous
 62
  3
 10
      -11.00000
 20
        3.00000
 30
        0.10000
 40
 .25
  1
True North
 41
 0.0
  7
MONOTXT
210
0.0
220
0.0
230
1.0
999
Text - Building Title
  0
TEXT
  8
1
  6
Continuous
 62
  3
 10
      -14.00000
 20
       -1.00000
 30
        0.10000
 40
 .4
  1
Building - Building
 41
 0.0
  7
MONOTXT
210
0.0
220
0.0
230
1.0
999
North Arrow Stem
  0
3DFACE
  8
1
 62
  3
 10
      -10.00000
 20
        3.00000
 30
        0.10000
 11
      -10.00000
 21
        3.00000
 31
        0.00000
 12
      -10.00000
 22
        0.00000
 32
        0.00000
 13
      -10.00000
 23
        0.00000
 33
        0.10000
999
North Arrow Head 1
  0
3DFACE
  8
1
 62
  3
 10
      -10.00000
 20
        3.00000
 30
        0.10000
 11
      -10.00000
 21
        3.00000
 31
        0.00000
 12
      -10.50000
 22
        2.13397
 32
        0.00000
 13
      -10.50000
 23
        2.13397
 33
        0.10000
999
North Arrow Head 2
  0
3DFACE
  8
1
 62
  3
 10
      -10.00000
 20
        3.00000
 30
        0.10000
 11
      -10.00000
 21
        3.00000
 31
        0.00000
 12
       -9.50000
 22
        2.13397
 32
        0.00000
 13
       -9.50000
 23
        2.13397
 33
        0.10000
999
North Arrow Side 1
  0
3DFACE
  8
1
 62
  3
 10
      -10.50000
 20
        4.50000
 30
        0.10000
 11
      -10.50000
 21
        4.50000
 31
        0.00000
 12
      -10.50000
 22
        3.50000
 32
        0.00000
 13
      -10.50000
 23
        3.50000
 33
        0.10000
999
North Arrow Side 2
  0
3DFACE
  8
1
 62
  3
 10
      -10.50000
 20
        4.50000
 30
        0.10000
 11
      -10.50000
 21
        4.50000
 31
        0.00000
 12
       -9.50000
 22
        3.50000
 32
        0.00000
 13
       -9.50000
 23
        3.50000
 33
        0.10000
999
North Arrow Side 3
  0
3DFACE
  8
1
 62
  3
 10
       -9.50000
 20
        4.50000
 30
        0.10000
 11
       -9.50000
 21
        4.50000
 31
        0.00000
 12
       -9.50000
 22
        3.50000
 32
        0.00000
 13
       -9.50000
 23
        3.50000
 33
        0.10000
999
Zone Names
999
Zone=1:ZONE
999
ZONE:BLOCK1:ZONE1_WALL_1_0_0
  0
3DFACE
  8
ZONE
 62
 43
 10
        0.00000
 20
       12.24745
 30
        3.50000
 11
        0.00000
 21
       12.24745
 31
        0.00000
 12
        0.00000
 22
        0.00000
 32
        0.00000
 13
        0.00000
 23
        0.00000
 33
        3.50000
999
ZONE:WINDDOW_EAST
  0
3DFACE
  8
ZONE
 62
143
 10
        0.00000
 20
       12.23745
 30
        2.27586
 11
        0.00000
 21
       12.23745
 31
        1.22414
 12
        0.00000
 22
        0.01000
 32
        1.22414
 13
        0.00000
 23
        0.01000
 33
        2.27586
999
ZONE:BLOCK1:ZONE1_WALL_2_0_0
  0
3DFACE
  8
ZONE
 62
 43
 10
        0.00000
 20
        0.00000
 30
        3.50000
 11
        0.00000
 21
        0.00000
 31
        0.00000
 12
       12.24745
 22
        0.00000
 32
        0.00000
 13
       12.24745
 23
        0.00000
 33
        3.92747
999
ZONE:WINDDOW_WEST
  0
3DFACE
  8
ZONE
 62
143
 10
        0.01000
 20
        0.00000
 30
        2.27586
 11
        0.01000
 21
        0.00000
 31
        1.22414
 12
       12.23745
 22
        0.00000
 32
        1.22414
 13
       12.23745
 23
        0.00000
 33
        2.27586
999
ZONE:BLOCK1:ZONE1_WALL_3_0_0
  0
3DFACE
  8
ZONE
 62
 43
 10
       12.24745
 20
        0.00000
 30
        3.92747
 11
       12.24745
 21
        0.00000
 31
        0.00000
 12
       12.24745
 22
       12.24745
 32
        0.00000
 13
       12.24745
 23
       12.24745
 33
        3.92747
999
ZONE:WINDDOW_NORTH
  0
3DFACE
  8
ZONE
 62
143
 10
       12.24745
 20
        0.01000
 30
        2.27586
 11
       12.24745
 21
        0.01000
 31
        1.22414
 12
       12.24745
 22
       12.23745
 32
        1.22414
 13
       12.24745
 23
       12.23745
 33
        2.27586
999
ZONE:BLOCK1:ZONE1_WALL_4_0_0
  0
3DFACE
  8
ZONE
 62
 43
 10
       12.24745
 20
       12.24745
 30
        3.92747
 11
       12.24745
 21
       12.24745
 31
        0.00000
 12
        0.00000
 22
       12.24745
 32
        0.00000
 13
        0.00000
 23
       12.24745
 33
        3.50000
999
ZONE:WINDDOW_SOUTH
  0
3DFACE
  8
ZONE
 62
143
 10
       12.23745
 20
       12.24745
 30
        2.27586
 11
       12.23745
 21
       12.24745
 31
        1.22414
 12
        0.01000
 22
       12.24745
 32
        1.22414
 13
        0.01000
 23
       12.24745
 33
        2.27586
999
ZONE:BLOCK1:ZONE1_GROUNDFLOOR_0_0_0
  0
3DFACE
  8
ZONE
 62
  8
 10
       12.24745
 20
       12.24745
 30
        0.00000
 11
       12.24745
 21
        0.00000
 31
        0.00000
 12
        0.00000
 22
        0.00000
 32
        0.00000
 13
        0.00000
 23
       12.24745
 33
        0.00000
999
ZONE:BLOCK1:ZONE1_ROOF_5_0_0
  0
3DFACE
  8
ZONE
 62
 15
 10
        0.00000
 20
       12.24745
 30
        3.50000
 11
        0.00000
 21
        0.00000
 31
        3.50000
 12
       12.24745
 22
        0.00000
 32
        3.92747
 13
       12.24745
 23
       12.24745
 33
        3.92747
  0
ENDSEC
  0
EOF
